FoamFile
{
    version     2.0;
    format      ascii;
    class       volScalarField;
    object      refineFlag;
}

dimensions      [0 0 0 0 0 0 0];
internalField   uniform 0;

boundaryField
{
    inlet
    {
        type            zeroGradient;
    }
    outlet
    {
        type            zeroGradient;
    }
    top
    {
        type            zeroGradient;
    }
    bottom
    {
        type            zeroGradient;
    }
    obstacle
    {
        type            zeroGradient;
    }
    front
    {
        type            empty;
    }
    back
    {
        type            empty;
    }
}
